IEEE57_SE_ANAREDE.PWF
TITU
IEEE 57 Bus Test Case - Substation Level - 2C                                   
DBAR
(Num)OETGb(   nome   )Gl( V)( A)( Pg)( Qg)( Qn)( Qm)(Bc  )( Pl)( Ql)( Sh)Are(Vf)M(1)(2)(3)(4)(5)(6)(7)(8)(9)(10
    1 L   Kanawha---V1   996-26.                                           11000                                   
    2 L1  Turner----V1  1010-27.   0.158.9 -17.  50.         3.  88.       11000                                   
    3 L1  Logan-----V1   985-28.  40.18.57 -10.  60.        41.  21.       11000                                   
    4 L   Sprigg----V1   980-29.                                           11000                                   
    5 L   Barra-5---V1   976-29.                            13.   4.       11000                                   
    6 L1  Beaver-Ck-V1   980-28.   0.2.158  -8.  25.        75.   2.       11000                                   
    7 L   Barra-7---V1   981-26.                                           11000                                   
    8 L1  Clinch-Rv-V1  1005-22. 450.66.69-140. 200.       150.  22.       11000                                   
    9 L1  Saltville-V1   980-26.   0. 6.97  -3.   9.       121.  26.       11000                                   
   10 L   Barra-10--V1   983-26.                                           11000                                   
   11 L   Tazewell--V1   969-27.                                           11000                                   
   12 L1  Glen-Lyn--V1  1015-23. 310.184.2-150. 155.       377.  24.       11000                                   
   13 L   Barra-13--V1   975-27.                            18.  2.3       11000                                   
   14 L   Barra-14--V1   965-28.                           10.5  5.3       11000                                   
   15 L   Barra-15--V1   975-28.                            22.   5.       11000                                   
   16 L2  Barra-16--V1  1013-8.9494.6-33.2-99999999.        43.   3.       11000                                   
   17 L   Barra-17--V1   993-27.                            42.   8.       11000                                   
   18 L   Sprigg----V2   942-38.                           27.2  9.8  10.  11000                                   
   19 L   Barra-19--V2   919-37.                                           11000                                   
   20 L   Barra-20--V2   917-36.                            2.3   1.       11000                                   
   21 L   Barra-21--V3   907-33.                                           11000                                   
   22 L   Barra-22--V3   910-32.                                           11000                                   
   23 L   Barra-23--V3   908-32.                            6.3  2.1       11000                                   
   24 L   Barra-24--V3   900-32.                                           11000                                   
   25 L   Barra-25--V4   829-43.                            6.3  3.2  5.9  11000                                   
   26 L   Barra-26--V5   902-32.                                           11000                                   
   27 L   Barra-27--V5   934-30.                            9.3   .5       11000                                   
   28 L   Barra-28--V5   953-29.                            4.6  2.3       11000                                   
   29 L   Barra-29--V5   969-28.                            17.  2.6       11000                                   
   30 L   Barra-30--V4   809-44.                            3.6  1.8       11000                                   
   31 L   Barra-31--V4   784-44.                            5.8  2.9       11000                                   
   32 L   Barra-32--V4   812-42.                            1.6   .8       11000                                   
   33 L   Barra-33--V4   809-42.                            3.8  1.9       11000                                   
   34 L   Barra-34--V3   857-34.                                           11000                                   
   35 L   Barra-35--V3   866-34.                             6.   3.       11000                                   
   36 L   Barra-36--V3   879-33.                                           11000                                   
   37 L   Barra-37--V3   888-33.                                           11000                                   
   38 L   Barra-38--V3   913-32.                            14.   7.       11000                                   
   39 L   Barra-39--V3   886-33.                                           11000                                   
   40 L   Barra-40--V3   878-33.                                           11000                                   
   41 L   Tazewell--V6   927-32.                            6.3   3.       11000                                   
   42 L   Barra-42--V6   882-34.                                           11000                                   
   43 L   Tazewell--V7   956-29.                             2.   1.       11000                                   
   44 L   Barra-44--V3   925-32.                            12.  1.8       11000                                   
   45 L   Barra-45--V3   961-30.                                           11000                                   
   46 L   Barra-46--V3   950-30.                                           11000                                   
   47 L   Barra-47--V3   927-32.                           29.7 11.6       11000                                   
   48 L   Barra-48--V3   924-32.                                           11000                                   
   49 L   Barra-49--V3   933-31.                            18.  8.5       11000                                   
   50 L   Barra-50--V3   927-31.                            21. 10.5       11000                                   
   51 L   Barra-51--V3   974-28.                            18.  5.3       11000                                   
   52 L   Barra-52--V5   932-30.                            4.9  2.2       11000                                   
   53 L   Barra-53--V5   919-31.                            20.  10.  6.3  11000                                   
   54 L   Barra-54--V5   940-29.                            4.1  1.4       11000                                   
   55 L   Saltville-V5   971-28.                            6.8  3.4       11000                                   
   56 L   Barra-56--V6   871-35.                            7.6  2.2       11000                                   
   57 L   Barra-57--V6   861-36.                            6.7   2.       11000                                   
   58 L   Barra58-SE01   996-26.                                           11000                                   
   59 L   Barra59-SE01   996-26.                                           11000                                   
   60 L   Barra60-SE01   996-26.                            55.  17.       11000                                   
   61 L   Barra61-SE01   996-26.                                           11000                                   
   62 L   Barra62-SE01   996-26.                                           11000                                   
   63 L   Barra63-SE01   996-26.                                           11000                                   
   64 L   Barra64-SE01   996-26.                                           11000                                   
   65 L   Barra65-SE10   983-26.                                           11000                                   
   66 L   Barra66-SE10   983-26.                                           11000                                   
   67 L   Barra67-SE10   983-26.                                           11000                                   
   68 L   Barra68-SE10   983-26.                             5.   2.       11000                                   
   69 L   Barra69-SE10   983-26.                                           11000                                   
   70 L   Barra70-SE19   919-37.                                           11000                                   
   71 L   Barra71-SE19   919-37.                                           11000                                   
   72 L   Barra72-SE19   919-37.                            3.3   .6       11000                                   
   73 L   Barra73-SE19   919-37.                                           11000                                   
   74 L   Barra74-SE42   882-34.                                           11000                                   
   75 L   Barra75-SE42   882-34.                                           11000                                   
   76 L   Barra76-SE42   882-34.                                           11000                                   
   77 L   Barra77-SE42   882-34.                                           11000                                   
   78 L   Barra78-SE42   882-34.                            7.1  4.4       11000                                   
   79 L   Barra79-SE42   882-34.                                           11000                                   
   80 L   Barra80-SE42   882-34.                                           11000                                   
   81 L   Barra81-SE42   882-34.                                           11000                                   
99999
DLIN
(De )d O d(Pa )NcEP ( R% )( X% )(Mvar)(Tap)(Tmn)(Tmx)(Phs)(Bc  )(Cn)(Ce)Ns(Cq)(1)(2)(3)(4)(5)(6)(7)(8)(9)(10
    1        58 1           .001                                99999999  9999                                
    1        60 1D         9999.                                99999999  9999                                
    1        62 1           .001                                99999999  9999                                
    2         3 1     2.98   8.5  8.18                          99999999  9999                                
    2        58 1      .83   2.8  12.9                          99999999  9999                                
    3         4 1     1.12  3.66   3.8                          99999999  9999                                
    3        15 1     1.62   5.3  5.44                          99999999  9999                                
    4         5 1     6.25  13.2  2.58                          99999999  9999                                
    4         6 1      4.3  14.8  3.48                          99999999  9999                                
    4        18 1           55.5         1.                     99999999  9999                                
    5         6 1     3.02  6.41  1.24                          99999999  9999                                
    6         7 1       2.  10.2  2.76                          99999999  9999                                
    6         8 1     3.39  17.3   4.7                          99999999  9999                                
    7         8 1     1.39  7.12  1.94                          99999999  9999                                
    7        29 1           6.48         1.                     99999999  9999                                
    8         9 1      .99  5.05  5.48                          99999999  9999                                
    9        11 1     2.58  8.48  2.18                          99999999  9999                                
    9        12 1     6.48  29.5  7.72                          99999999  9999                                
    9        13 1     4.81  15.8  4.06                          99999999  9999                                
    9        55 1          12.05         1.                     99999999  9999                                
    9        65 1     3.69 16.79   4.4                          99999999  9999                                
   10        65 1D         9999.                                99999999  9999                                
   10        66 1D         9999.                                99999999  9999                                
   10        67 1           .001                                99999999  9999                                
   10        68 1           .001                                99999999  9999                                
   11        13 1     2.23  7.32  1.88                          99999999  9999                                
   11        41 1           74.9         1.                     99999999  9999                                
   11        43 1           15.3         1.                     99999999  9999                                
   12        13 1     1.78   5.8  6.04                          99999999  9999                                
   12        16 1      1.8  8.13  2.16                          99999999  9999                                
   12        17 1     3.97  17.9  4.76                          99999999  9999                                
   12        67 1     2.77 12.62  3.28                          99999999  9999                                
   13        14 1     1.32  4.34   1.1                          99999999  9999                                
   13        15 1     2.69  8.69   2.3                          99999999  9999                                
   13        49 1           19.1         1.                     99999999  9999                                
   14        15 1     1.71  5.47  1.48                          99999999  9999                                
   14        46 1           7.35         1.                     99999999  9999                                
   15        45 1          10.42         1.                     99999999  9999                                
   15        59 1     1.78   9.1  9.88                          99999999  9999                                
   16        63 1     4.54  20.6  5.46                          99999999  9999                                
   17        61 1     2.38  10.8  2.86                          99999999  9999                                
   18        70 1     46.1  68.5                                99999999  9999                                
   19        70 1D         9999.                                99999999  9999                                
   19        71 1           .001                                99999999  9999                                
   19        72 1           .001                                99999999  9999                                
   20        71 1     28.3  43.4                                99999999  9999                                
   21        20 1          77.67         1.                     99999999  9999                                
   21        22 1     7.36  11.7                                99999999  9999                                
   22        23 1      .99  1.52                                99999999  9999                                
   22        38 1     1.92  2.95                                99999999  9999                                
   23        24 1     16.6  25.6   .84                          99999999  9999                                
   24        25 1          118.2         1.                     99999999  9999                                
   24        26 1           4.73         1.                     99999999  9999                                
   25        30 1     13.5  20.2                                99999999  9999                                
   26        27 1     16.5  25.4                                99999999  9999                                
   27        28 1     6.18  9.54                                99999999  9999                                
   28        29 1     4.18  5.87                                99999999  9999                                
   29        52 1    14.42  18.7                                99999999  9999                                
   30        31 1     32.6  49.7                                99999999  9999                                
   31        32 1     50.7  75.5                                99999999  9999                                
   32        33 1     3.92   3.6                                99999999  9999                                
   34        32 1           95.3         1.                     99999999  9999                                
   34        35 1      5.2   7.8   .32                          99999999  9999                                
   35        36 1      4.3  5.37   .16                          99999999  9999                                
   36        37 1      2.9  3.66                                99999999  9999                                
   36        40 1       3.  4.66                                99999999  9999                                
   37        38 1     6.51 10.09    .2                          99999999  9999                                
   37        39 1     2.39  3.79                                99999999  9999                                
   38        44 1     2.89  5.85    .2                          99999999  9999                                
   38        48 1     3.12  4.82                                99999999  9999                                
   38        49 1     11.5  17.7    .3                          99999999  9999                                
   39        57 1          135.5         1.                     99999999  9999                                
   40        56 1          119.5         1.                     99999999  9999                                
   41        43 1           41.2                                99999999  9999                                
   41        76 1     20.7  35.2                                99999999  9999                                
   42        74 1D         9999.                                99999999  9999                                
   42        75 1D         9999.                                99999999  9999                                
   42        76 1D         9999.                                99999999  9999                                
   42        77 1           .001                                99999999  9999                                
   42        78 1D         9999.                                99999999  9999                                
   42        79 1D         9999.                                99999999  9999                                
   42        80 1           .001                                99999999  9999                                
   44        45 1     6.24 12.42    .4                          99999999  9999                                
   46        47 1      2.3   6.8   .32                          99999999  9999                                
   47        48 1     1.82  2.33                                99999999  9999                                
   48        49 1     8.34  12.9   .48                          99999999  9999                                
   49        50 1     8.01  12.8                                99999999  9999                                
   50        51 1    13.86   22.                                99999999  9999                                
   51        66 1           7.12         1.                     99999999  9999                                
   52        53 1     7.62  9.84                                99999999  9999                                
   53        54 1    18.78  23.2                                99999999  9999                                
   54        55 1    17.32 22.65                                99999999  9999                                
   56        41 1     55.3  54.9                                99999999  9999                                
   56        74 1    21.25  35.4                                99999999  9999                                
   57        56 1     17.4   26.                                99999999  9999                                
   58        59 1D         9999.                                99999999  9999                                
   59        64 1           .001                                99999999  9999                                
   60        61 1           .001                                99999999  9999                                
   61        64 1           .001                                99999999  9999                                
   62        63 1           .001                                99999999  9999                                
   63        64 1           .001                                99999999  9999                                
   65        69 1           .001                                99999999  9999                                
   66        69 1           .001                                99999999  9999                                
   67        69 1D         9999.                                99999999  9999                                
   68        69 1           .001                                99999999  9999                                
   70        73 1           .001                                99999999  9999                                
   71        73 1           .001                                99999999  9999                                
   72        73 1D         9999.                                99999999  9999                                
   74        75 1           .001                                99999999  9999                                
   75        81 1           .001                                99999999  9999                                
   76        77 1           .001                                99999999  9999                                
   77        81 1D         9999.                                99999999  9999                                
   78        79 1           .001                                99999999  9999                                
   79        81 1           .001                                99999999  9999                                
   80        81 1           .001                                99999999  9999                                
99999
FIM
